reduced_networks/case533mt/66pct/case533mt_reduced_s1.m
%% case533mt_reduced_s1 -- Opti-KRON reduction of case533mt
%
%   533 buses reduced to 180 super-nodes (66.2% reduction), 179 branches.
%   Loads are scenario 1 of 2.
%
%   Equivalent branches come from the Kron-reduced admittance matrix, so a
%   negative resistance is possible and is not an error -- an equivalent
%   branch stands in for eliminated network, not for a conductor.
%
%   Bus map -- each super-node and the original buses it represents:
%     1 <- 1 4
%     2 <- 2 28 36 37 38 39 40 73 74 77 81 82 217 222
%     3 <- 3 218 219 220 221 224 225 233
%     5 <- 5 23 46 56
%     6 <- 6
%     7 <- 7 8
%     9 <- 9 10
%     11 <- 11 20 21
%     12 <- 12 13 14 15 16 17 18 19
%     22 <- 22 45
%     24 <- 24 25 26 27
%     29 <- 29
%     30 <- 30
%     31 <- 31 32 33
%     34 <- 34 35
%     41 <- 41
%     42 <- 42 43
%     44 <- 44
%     47 <- 47
%     48 <- 48 49 53 54 55
%     50 <- 50
%     51 <- 51 52
%     57 <- 57 58 59
%     60 <- 60 61 62
%     63 <- 63
%     64 <- 64 65 66 69
%     67 <- 67
%     68 <- 68 250 251
%     70 <- 70 71
%     72 <- 72 75 76
%     78 <- 78 79 80 130
%     83 <- 83
%     84 <- 84
%     85 <- 85 86
%     87 <- 87 88 89 90 91 92
%     93 <- 93 94 95 96 97 98 99 100
%     101 <- 101
%     102 <- 102
%     103 <- 103 104
%     105 <- 105 106
%     107 <- 107
%     108 <- 108 472 473
%     109 <- 109 131
%     110 <- 110
%     111 <- 111
%     112 <- 112
%     113 <- 113 124
%     114 <- 114 115 116 117 118 123
%     119 <- 119 120 121 122
%     125 <- 125 126
%     127 <- 127 128 129 195
%     132 <- 132
%     133 <- 133
%     134 <- 134
%     135 <- 135
%     136 <- 136 166
%     137 <- 137
%     138 <- 138
%     139 <- 139
%     140 <- 140
%     141 <- 141 149 150 151
%     142 <- 142 143
%     144 <- 144 145
%     146 <- 146 147 148
%     156 <- 152 153 154 155 156 157 164 165 207 208 209 210
%     158 <- 158 159 161 162
%     160 <- 160 163
%     167 <- 167 168
%     169 <- 169 170 171
%     172 <- 172 175 176 177
%     173 <- 173
%     174 <- 174
%     178 <- 178 197
%     179 <- 179 181
%     182 <- 182
%     183 <- 183
%     184 <- 184 185 196
%     186 <- 186
%     187 <- 187 188
%     189 <- 189 190 191 192 193 194
%     198 <- 198 199 200 201 202 203 204 205 206
%     211 <- 211 212
%     213 <- 213 215 216 223
%     214 <- 214 247 248
%     226 <- 226
%     227 <- 227 228 229
%     230 <- 230
%     231 <- 231
%     232 <- 232 234
%     235 <- 235 236 237
%     238 <- 238
%     239 <- 239
%     240 <- 240
%     241 <- 241 252
%     243 <- 243
%     244 <- 244 245
%     246 <- 246
%     253 <- 242 249 253 254
%     255 <- 255
%     256 <- 180 256
%     257 <- 257 263 264 265
%     258 <- 258 259
%     260 <- 260 261
%     262 <- 262
%     266 <- 266 327 448 449
%     267 <- 267 505 506
%     268 <- 268 269
%     270 <- 270 271
%     272 <- 272 273 274 292
%     275 <- 275 276 277 278 279 280 281 282 283 284 285 289 290 291
%     286 <- 286 287 288
%     293 <- 293 301 302 303 304 305 306
%     307 <- 307
%     308 <- 308 309
%     310 <- 310 311 312 313 314 315
%     316 <- 316 317 326
%     318 <- 318
%     319 <- 319 320 321 322
%     323 <- 294 295 296 297 298 299 300 323 324 325
%     328 <- 328 351
%     329 <- 329 350
%     330 <- 330 331
%     332 <- 332 333 334 335
%     336 <- 336 337 338 339 340 341 342 343 344 345 346 347 348 349
%     352 <- 352
%     353 <- 353
%     354 <- 354 355
%     356 <- 356
%     357 <- 357 358 359 360
%     361 <- 361
%     362 <- 362 363 365
%     364 <- 364 366 367 368 417 418
%     369 <- 369
%     370 <- 370 371
%     372 <- 372 373 374 375 376 377 378
%     379 <- 379 429
%     380 <- 380
%     381 <- 381 382
%     383 <- 383 384 385 386 427 428
%     387 <- 387
%     388 <- 388
%     389 <- 389 390 391
%     392 <- 392
%     393 <- 393
%     394 <- 394 395 396 397 399 400
%     398 <- 398 401 402 403 404 405 406 407 408 409
%     410 <- 410 411 412 413 414 420
%     415 <- 415 416 419
%     421 <- 421 422 425 426
%     423 <- 423 424
%     430 <- 430
%     431 <- 431 445 446 447
%     432 <- 432 444
%     433 <- 433
%     434 <- 434 435 436 437 438 439 440 441 442
%     443 <- 443
%     450 <- 450 451 452 453 454 455 456
%     457 <- 457
%     458 <- 458 459 461 462
%     460 <- 460 463 464 465 466 467 503 504
%     468 <- 468 469 470 471 500 501 502
%     474 <- 474 490 491 492
%     475 <- 475 476 488 489
%     477 <- 477 478 484 485 486
%     479 <- 479 480 481 482 483
%     487 <- 487
%     495 <- 493 494 495 496 497 499
%     498 <- 498
%     509 <- 507 508 509
%     510 <- 510 512
%     511 <- 511
%     513 <- 513
%     514 <- 514 515
%     516 <- 516
%     517 <- 517 533
%     518 <- 518 519
%     520 <- 520
%     521 <- 521 532
%     522 <- 522 523
%     524 <- 524 525 526 527 528 529 530 531

function mpc = case533mt_reduced_s1
mpc.version = '2';
mpc.baseMVA = 1;

%% bus data
%	bus_i	type	Pd	Qd	Gs	Bs	area	Vm	Va	baseKV	zone	Vmax	Vmin
mpc.bus = [
	1	3	-0	-0	-2.2737367544323206e-13	2.2737367544323206e-13	1	1	0	1	1	1.1	0.9;
	2	1	0.047001499920000002	0.00047001353999999998	4.9116266609416925e-13	1.7497114868092467e-13	1	1	0	1	1	1.1	0.9;
	3	1	0.031151000040000001	0.00031151003999999998	-2.3092638912203256e-14	-5.666578317686799e-13	1	1	0	1	1	1.1	0.9;
	5	1	0.011746139999999997	0.00011746139999999999	5.2106162914463441e-14	2.0871925162258984e-15	1	1	0	1	1	1.1	0.9;
	6	1	0.00070000002000000002	7.0000199999999996e-06	0	0	1	1	0	1	1	1.1	0.9;
	7	1	-0.00052000001999999998	-5.2020000000000003e-06	4.4408920985006262e-16	-1.6653345369377348e-16	1	1	0	1	1	1.1	0.9;
	9	1	0.00100584	1.0056420000000001e-05	8.8817841970012523e-16	-8.8817841970012523e-16	1	1	0	1	1	1.1	0.9;
	11	1	0.0010975799399999999	1.0973579999999998e-05	0	-2.2204460492503131e-15	1	1	0	1	1	1.1	0.9;
	12	1	0.0036815998799999998	3.6814919999999993e-05	2.8421709430404007e-14	-3.9968028886505635e-15	1	1	0	1	1	1.1	0.9;
	22	1	0.0039552400199999995	3.9552419999999999e-05	-2.0943084309559417e-14	3.3183435126086425e-14	1	1	0	1	1	1.1	0.9;
	24	1	0.0075806599799999996	7.5804599999999996e-05	0	-2.2204460492503131e-15	1	1	0	1	1	1.1	0.9;
	29	1	0.00082319999999999995	8.2320000000000001e-06	-7.1054273576010019e-15	1.7763568394002505e-15	1	1	0	1	1	1.1	0.9;
	30	1	0.0082600000199999982	8.260001999999999e-05	0	0	1	1	0	1	1	1.1	0.9;
	31	1	0.0099435599999999989	9.9435600000000001e-05	-7.1054273576010019e-15	1.3322676295501878e-14	1	1	0	1	1	1.1	0.9;
	34	1	0.015386020019999998	0.00015386022000000001	1.0658141036401503e-14	-4.4408920985006262e-15	1	1	0	1	1	1.1	0.9;
	41	1	0.00049816001999999991	4.9799999999999998e-06	-8.8817841970012523e-16	2.2204460492503131e-16	1	1	0	1	1	1.1	0.9;
	42	1	0.00016000001999999999	1.6019999999999999e-06	4.9273390350309023e-15	-4.7376907219032947e-15	1	1	0	1	1	1.1	0.9;
	44	1	0.0076897399799999988	7.6897379999999992e-05	0	0	1	1	0	1	1	1.1	0.9;
	47	1	-0.0012199999799999998	-1.219998e-05	0	0	1	1	0	1	1	1.1	0.9;
	48	1	0.0028248199800000001	2.824818e-05	-5.4723593641740245e-15	-6.7769850295857011e-15	1	1	0	1	1	1.1	0.9;
	50	1	0.00086824001999999986	8.6824199999999998e-06	-2.6645352591003761e-15	-5.9952043329758469e-15	1	1	0	1	1	1.1	0.9;
	51	1	-0.00054910001999999999	-5.4880199999999995e-06	2.2204460492503131e-14	1.3544720900426907e-14	1	1	0	1	1	1.1	0.9;
	57	1	0.0080235400199999991	8.0235419999999996e-05	3.9185915615030097e-15	-8.7722214185988167e-15	1	1	0	1	1	1.1	0.9;
	60	1	0.0212439	0.00021243899999999998	2.9309489636901797e-14	4.1078165556658804e-14	1	1	0	1	1	1.1	0.9;
	63	1	0.01270810002	0.00012708101999999997	1.7763568394002505e-15	8.8817841970012523e-16	1	1	0	1	1	1.1	0.9;
	64	1	0.023692780019999998	0.00023692781999999998	2.1384796926001175e-14	6.0480782897210909e-14	1	1	0	1	1	1.1	0.9;
	67	1	0.01001142	0.0001001142	0	0	1	1	0	1	1	1.1	0.9;
	68	1	0.021234460019999998	0.00021234461999999996	-2.6642410722957366e-15	2.0601794050144228e-14	1	1	0	1	1	1.1	0.9;
	70	1	0.0067291000199999999	6.7291019999999991e-05	3.3632986107337561e-14	1.1957033730567525e-14	1	1	0	1	1	1.1	0.9;
	72	1	0.087011279999999996	0.00087011279999999987	4.3399386572133768e-15	9.4757625641823673e-15	1	1	0	1	1	1.1	0.9;
	78	1	0.0034636799999999994	3.4639619999999994e-05	-2.0023755855634057e-14	-4.9681091275452067e-14	1	1	0	1	1	1.1	0.9;
	83	1	0.0009679399799999999	9.6793799999999995e-06	-8.8817841970012523e-16	-4.4408920985006262e-16	1	1	0	1	1	1.1	0.9;
	84	1	0.0017756800199999999	1.7756820000000001e-05	8.8817841970012523e-16	-4.4408920985006262e-16	1	1	0	1	1	1.1	0.9;
	85	1	0.0020962199999999998	2.0962199999999997e-05	-5.5086832831302431e-15	-1.0777220536190666e-15	1	1	0	1	1	1.1	0.9;
	87	1	0.0029942399999999996	2.9942819999999999e-05	1.3205691166388668e-13	-6.892100743123845e-14	1	1	0	1	1	1.1	0.9;
	93	1	0.0029615800199999992	2.9621819999999996e-05	-3.3274038797271139e-14	1.6402223586231533e-14	1	1	0	1	1	1.1	0.9;
	101	1	0.00153432	1.5343199999999999e-05	0	0	1	1	0	1	1	1.1	0.9;
	102	1	0.00092839997999999999	9.2839799999999998e-06	0	0	1	1	0	1	1	1.1	0.9;
	103	1	0.00058469999999999996	5.8499999999999999e-06	-1.2018819019124559e-14	-1.0148788240251046e-14	1	1	0	1	1	1.1	0.9;
	105	1	0.0034157800199999997	3.4157219999999993e-05	-1.4554626265405876e-14	4.0642891925463519e-14	1	1	0	1	1	1.1	0.9;
	107	1	0.0043826599800000001	4.3826579999999997e-05	0	0	1	1	0	1	1	1.1	0.9;
	108	1	0.00315169998	3.1518599999999993e-05	-8.2848595466533574e-16	-1.9854638921770966e-15	1	1	0	1	1	1.1	0.9;
	109	1	0.00052976003999999995	5.2979999999999999e-06	3.1916753171938913e-14	1.0746623832917634e-14	1	1	0	1	1	1.1	0.9;
	110	1	0.0015118199999999999	1.51182e-05	1.7763568394002505e-15	4.4408920985006262e-16	1	1	0	1	1	1.1	0.9;
	111	1	0.00052800000000000004	5.2799999999999994e-06	-1.7763568394002505e-15	0	1	1	0	1	1	1.1	0.9;
	112	1	0.00032969999999999999	3.2999999999999997e-06	0	-4.4408920985006262e-16	1	1	0	1	1	1.1	0.9;
	113	1	0.00057545999999999997	5.7539999999999995e-06	1.0065491571115723e-14	-7.260074855516679e-15	1	1	0	1	1	1.1	0.9;
	114	1	0.00020118000000000002	2.0119799999999998e-06	-8.632395428778914e-15	-8.9489841042014091e-15	1	1	0	1	1	1.1	0.9;
	119	1	0.0022730999999999997	2.2728419999999999e-05	-1.7612336535496459e-14	2.4932484772941618e-14	1	1	0	1	1	1.1	0.9;
	125	1	0.00089377998000000002	8.9399999999999991e-06	9.2127262744013508e-15	5.5410290623351113e-15	1	1	0	1	1	1.1	0.9;
	127	1	0.00141390006	1.4144220000000001e-05	-7.2169798616976175e-14	9.5635451240252993e-14	1	1	0	1	1	1.1	0.9;
	132	1	0.00072967997999999999	7.2967799999999996e-06	0	0	1	1	0	1	1	1.1	0.9;
	133	1	0.00083149997999999996	8.3149799999999995e-06	-8.8817841970012523e-16	-4.4408920985006262e-16	1	1	0	1	1	1.1	0.9;
	134	1	0.00022954001999999998	2.2979999999999999e-06	-1.7763568394002505e-15	0	1	1	0	1	1	1.1	0.9;
	135	1	0.0027431800199999999	2.7431819999999999e-05	1.7763568394002505e-15	4.4408920985006262e-16	1	1	0	1	1	1.1	0.9;
	136	1	0.00127402002	1.273782e-05	-2.5292584996123225e-14	1.1735915102142706e-14	1	1	0	1	1	1.1	0.9;
	137	1	0.0003366	3.366e-06	1.7763568394002505e-15	-4.4408920985006262e-16	1	1	0	1	1	1.1	0.9;
	138	1	8.6419980000000001e-05	8.639999999999999e-07	0	-8.8817841970012523e-16	1	1	0	1	1	1.1	0.9;
	139	1	0.00039991997999999998	4.0019999999999991e-06	1.7763568394002505e-15	4.4408920985006262e-16	1	1	0	1	1	1.1	0.9;
	140	1	0.00150607998	1.506078e-05	-8.8817841970012523e-16	0	1	1	0	1	1	1.1	0.9;
	141	1	0.0035114599799999997	3.5115779999999999e-05	-2.3775524965710187e-14	-2.4763339894297326e-14	1	1	0	1	1	1.1	0.9;
	142	1	0.0013124800199999999	1.3124819999999998e-05	1.3440638668218448e-14	1.0093228871903629e-14	1	1	0	1	1	1.1	0.9;
	144	1	0.0027276799799999998	2.7276780000000001e-05	-2.2648788249872475e-16	-5.3414203395842528e-15	1	1	0	1	1	1.1	0.9;
	146	1	0.0017091599999999999	1.7091179999999999e-05	8.9706020387431503e-14	2.1316282163419313e-14	1	1	0	1	1	1.1	0.9;
	156	1	0.004178000099999999	4.177661999999999e-05	-1.4121350969590068e-13	-5.445794178569219e-15	1	1	0	1	1	1.1	0.9;
	158	1	0.00162656004	1.6268639999999998e-05	-3.1387566235660585e-14	-2.6795736662218357e-14	1	1	0	1	1	1.1	0.9;
	160	1	0.00071621999999999994	7.1621999999999998e-06	3.061495008138214e-13	-5.6382826213251728e-13	1	1	0	1	1	1.1	0.9;
	167	1	0.0081251599799999994	8.1251579999999998e-05	8.6255321799689233e-14	-5.3419050319393084e-14	1	1	0	1	1	1.1	0.9;
	169	1	0.018616899959999999	0.00018616895999999997	1.3546271320317452e-13	5.4399046994244643e-15	1	1	0	1	1	1.1	0.9;
	172	1	-0.0028999999799999999	-2.8999979999999999e-05	-1.319288619002364e-13	1.2181623918130682e-12	1	1	0	1	1	1.1	0.9;
	173	1	-0.00112000002	-1.1200019999999999e-05	0	0	1	1	0	1	1	1.1	0.9;
	174	1	-0.00127999998	-1.279998e-05	0	0	1	1	0	1	1	1.1	0.9;
	178	1	0.00045787998	4.5779999999999992e-06	-3.3956184982609795e-14	1.4108024201621961e-14	1	1	0	1	1	1.1	0.9;
	179	1	0.0022105000200000001	2.2105019999999997e-05	7.7762336021259344e-14	-1.8187496176835338e-14	1	1	0	1	1	1.1	0.9;
	182	1	0.00090607997999999994	9.06078e-06	7.6995692396512231e-14	-2.6980440706204718e-14	1	1	0	1	1	1.1	0.9;
	183	1	0.00179113998	1.7911379999999998e-05	0	4.4408920985006262e-16	1	1	0	1	1	1.1	0.9;
	184	1	0.00228304002	2.283e-05	-8.0240085797540052e-14	-1.2032671355036698e-13	1	1	0	1	1	1.1	0.9;
	186	1	0.00041380002	4.1399999999999993e-06	-5.1827552969191148e-14	-8.0575829366332637e-14	1	1	0	1	1	1.1	0.9;
	187	1	0.00061408002000000006	6.1439999999999991e-06	5.5480923157013772e-15	2.1559311669587149e-14	1	1	0	1	1	1.1	0.9;
	189	1	0.0049859399999999995	4.9861379999999995e-05	6.7881970489190399e-13	-1.3039780715471549e-13	1	1	0	1	1	1.1	0.9;
	198	1	0.0029623000199999997	2.9628419999999997e-05	7.9236389158941322e-13	-2.4546033857369234e-13	1	1	0	1	1	1.1	0.9;
	211	1	0.0048599999999999997	4.8599999999999995e-05	-1.4210854715202004e-14	1.7763568394002503e-15	1	1	0	1	1	1.1	0.9;
	213	1	0.02165422002	0.00021654221999999998	3.1974423109204508e-14	1.7763568394002505e-14	1	1	0	1	1	1.1	0.9;
	214	1	0.013825399979999998	0.00013825397999999998	3.5527136788005009e-15	-8.8817841970012523e-16	1	1	0	1	1	1.1	0.9;
	226	1	0.0054599999999999996	5.4599999999999999e-05	-3.5527136788005009e-15	1.7763568394002505e-15	1	1	0	1	1	1.1	0.9;
	227	1	0.023525800019999998	0.00023525801999999999	-2.8421709430404007e-14	-3.5527136788005009e-15	1	1	0	1	1	1.1	0.9;
	230	1	0.011645119979999998	0.00011645117999999999	0	0	1	1	0	1	1	1.1	0.9;
	231	1	0.0038307400199999995	3.830742e-05	0	-1.7763568394002505e-15	1	1	0	1	1	1.1	0.9;
	232	1	0.0068293799999999995	6.8293799999999993e-05	0	3.5527136788005009e-15	1	1	0	1	1	1.1	0.9;
	235	1	0.023518279980000001	0.00023518277999999999	1.0658141036401503e-13	-7.815970093361102e-14	1	1	0	1	1	1.1	0.9;
	238	1	0.013455799979999999	0.00013455797999999998	-1.7763568394002505e-15	0	1	1	0	1	1	1.1	0.9;
	239	1	0.0066497200199999995	6.6497219999999985e-05	-3.5527136788005009e-15	0	1	1	0	1	1	1.1	0.9;
	240	1	0.0062795999999999998	6.2796e-05	5.3290705182007514e-15	1.3322676295501878e-15	1	1	0	1	1	1.1	0.9;
	241	1	0.01143871998	0.00011438717999999999	3.5527136788005009e-15	-7.9936057773011271e-15	1	1	0	1	1	1.1	0.9;
	243	1	0.0059206999799999993	5.9206979999999996e-05	-1.7763568394002505e-15	0	1	1	0	1	1	1.1	0.9;
	244	1	0.0048520799999999991	4.8520799999999998e-05	-1.0658141036401503e-14	3.5527136788005009e-15	1	1	0	1	1	1.1	0.9;
	246	1	0.00287046	2.87046e-05	0	0	1	1	0	1	1	1.1	0.9;
	253	1	0.021075499980000002	0.00021075498	1.4210854715202004e-14	-6.2172489379008766e-15	1	1	0	1	1	1.1	0.9;
	255	1	0.0097717199999999994	9.7717199999999987e-05	0	0	1	1	0	1	1	1.1	0.9;
	256	1	0.017719719959999998	0.00017719715999999999	3.5527136788005009e-15	3.1974423109204508e-14	1	1	0	1	1	1.1	0.9;
	257	1	0.017573719979999999	0.00017573717999999999	-7.1054273576010019e-15	3.0198066269804258e-14	1	1	0	1	1	1.1	0.9;
	258	1	0.015098600039999997	0.00015098603999999998	4.8849813083506888e-15	-3.3306690738754696e-15	1	1	0	1	1	1.1	0.9;
	260	1	0.014915560019999998	0.00014915561999999998	8.8817841970012523e-16	0	1	1	0	1	1	1.1	0.9;
	262	1	0.01358184	0.00013581839999999998	0	0	1	1	0	1	1	1.1	0.9;
	266	1	0.0014934400199999999	1.4933820000000001e-05	5.3290705182007514e-15	-3.9968028886505635e-15	1	1	0	1	1	1.1	0.9;
	267	1	0.00069096000000000001	6.9059999999999996e-06	-5.3290705182007514e-15	4.4408920985006262e-16	1	1	0	1	1	1.1	0.9;
	268	1	0.0021079400399999998	2.108202e-05	5.3290705182007514e-15	1.4432899320127035e-15	1	1	0	1	1	1.1	0.9;
	270	1	0.0012739799999999996	1.2737999999999999e-05	3.5527136788005009e-15	4.4408920985006262e-16	1	1	0	1	1	1.1	0.9;
	272	1	0.00095764001999999987	9.5760000000000012e-06	-1.1102230246251565e-14	3.219646771412954e-15	1	1	0	1	1	1.1	0.9;
	275	1	0.0061524599399999996	6.1520939999999992e-05	1.5099033134902129e-14	-5.4178883601707639e-14	1	1	0	1	1	1.1	0.9;
	286	1	0.0018118000199999996	1.811802e-05	-4.6851411639181606e-14	-1.1990408665951691e-14	1	1	0	1	1	1.1	0.9;
	293	1	0.0033139999799999993	3.3142380000000002e-05	-9.6593159828124722e-15	-2.1029531236395331e-14	1	1	0	1	1	1.1	0.9;
	307	1	0.00086159999999999991	8.6159999999999985e-06	0	0	1	1	0	1	1	1.1	0.9;
	308	1	0.00076881995999999997	7.6860000000000006e-06	-1.9676470565798936e-15	3.176269999592223e-15	1	1	0	1	1	1.1	0.9;
	310	1	0.00191618004	1.9157219999999998e-05	8.5774445460973213e-15	9.8137395285523378e-15	1	1	0	1	1	1.1	0.9;
	316	1	0.0022372599599999998	2.237478e-05	1.2059860421677545e-14	4.5520479572837577e-15	1	1	0	1	1	1.1	0.9;
	318	1	0.00121648002	1.2164819999999999e-05	5.2670177973629087e-15	2.1067459949817399e-15	1	1	0	1	1	1.1	0.9;
	319	1	0.00422627994	4.2262740000000001e-05	5.773159728050814e-15	5.9618976422370906e-14	1	1	0	1	1	1.1	0.9;
	323	1	0.0031773400199999998	3.1775820000000003e-05	2.1316282072803006e-14	1.5765166949677223e-14	1	1	0	1	1	1.1	0.9;
	328	1	0.00081731999999999985	8.1779999999999986e-06	-5.3290705182007514e-15	1.7763568394002505e-15	1	1	0	1	1	1.1	0.9;
	329	1	0.0019754999999999998	1.9754999999999996e-05	0	4.4408920985006262e-16	1	1	0	1	1	1.1	0.9;
	330	1	0.00087661997999999991	8.7659999999999987e-06	8.8817841970012523e-16	-4.4408920985006262e-16	1	1	0	1	1	1.1	0.9;
	332	1	0.0029704799399999995	2.9702159999999999e-05	-1.7763568394002505e-15	-4.4408920985006262e-16	1	1	0	1	1	1.1	0.9;
	336	1	0.0046876799999999996	4.6878600000000002e-05	9.9920072216264089e-14	4.6407322429331543e-14	1	1	0	1	1	1.1	0.9;
	352	1	0.0020047600199999999	2.0047619999999999e-05	-3.5527136788005009e-15	0	1	1	0	1	1	1.1	0.9;
	353	1	0.0011649400200000001	1.1649419999999999e-05	0	4.4408920985006262e-16	1	1	0	1	1	1.1	0.9;
	354	1	0.0044221999799999995	4.4221979999999996e-05	8.8817841970012523e-15	-4.4408920985006262e-15	1	1	0	1	1	1.1	0.9;
	356	1	0.00022145999999999998	2.2139999999999999e-06	3.9968028886505635e-15	-1.3322676295501878e-15	1	1	0	1	1	1.1	0.9;
	357	1	0.0021232399799999998	2.1230399999999999e-05	-8.8817841970012523e-15	6.6613381477509392e-15	1	1	0	1	1	1.1	0.9;
	361	1	0.00079919999999999991	7.9920000000000007e-06	0	1.7763568394002505e-15	1	1	0	1	1	1.1	0.9;
	362	1	0.00051211997999999999	5.1239999999999996e-06	0	0	1	1	0	1	1	1.1	0.9;
	364	1	0.0023294200199999999	2.3295600000000001e-05	-6.6670371656728101e-15	-4.2847845769257869e-16	1	1	0	1	1	1.1	0.9;
	369	1	-0.00060400001999999996	-6.0400199999999995e-06	-3.5527136788005009e-15	0	1	1	0	1	1	1.1	0.9;
	370	1	0.00015727997999999998	1.5719999999999999e-06	-1.2802830010314233e-14	1.4055027697673915e-14	1	1	0	1	1	1.1	0.9;
	372	1	0.00133681992	1.33656e-05	-7.0073305659297396e-14	1.0094140218544645e-13	1	1	0	1	1	1.1	0.9;
	379	1	0.0013007199600000002	1.3008180000000001e-05	0	-8.8817841970012523e-16	1	1	0	1	1	1.1	0.9;
	380	1	0.00028949999999999999	2.898e-06	0	0	1	1	0	1	1	1.1	0.9;
	381	1	-0.00024000000000000001	-2.4017999999999996e-06	2.8797814353127687e-14	-3.41017307884218e-15	1	1	0	1	1	1.1	0.9;
	383	1	0.00207465996	2.0748779999999999e-05	-2.9249342511345521e-14	4.3090897301574997e-14	1	1	0	1	1	1.1	0.9;
	387	1	-0	-0	4.6185277824406512e-14	4.4408920985006207e-16	1	1	0	1	1	1.1	0.9;
	388	1	4.1999999999999996e-06	4.1999999999999992e-08	0	0	1	1	0	1	1	1.1	0.9;
	389	1	0.00106479996	1.064838e-05	-1.4148946468799741e-14	3.1700881877737899e-14	1	1	0	1	1	1.1	0.9;
	392	1	0.0001014	1.0139999999999999e-06	0	0	1	1	0	1	1	1.1	0.9;
	393	1	0.00045179999999999998	4.5179999999999998e-06	0	-1.7763568394002505e-15	1	1	0	1	1	1.1	0.9;
	394	1	0.00148882002	1.4885999999999998e-05	2.419944595171074e-14	5.5955593807720613e-14	1	1	0	1	1	1.1	0.9;
	398	1	0.0026711600399999995	2.671998e-05	-6.9927260878828989e-14	3.2771199332206456e-14	1	1	0	1	1	1.1	0.9;
	410	1	0.01003225998	0.00010032275999999999	4.4698840639008902e-14	2.1254355602057573e-14	1	1	0	1	1	1.1	0.9;
	415	1	0.00289339998	2.8933199999999999e-05	-1.5755490458851922e-14	1.1979061164986814e-14	1	1	0	1	1	1.1	0.9;
	421	1	0.00043859993999999995	4.3800000000000004e-06	-1.2434497875801753e-14	-1.1990408665951691e-14	1	1	0	1	1	1.1	0.9;
	423	1	-5.9999999999999995e-05	-5.9819999999999994e-07	1.7763568394002505e-15	4.4408920985006262e-16	1	1	0	1	1	1.1	0.9;
	430	1	-0	-0	0	-1.7763568394002505e-15	1	1	0	1	1	1.1	0.9;
	431	1	0.00086220000000000003	8.6215799999999992e-06	1.7763568394002505e-15	0	1	1	0	1	1	1.1	0.9;
	432	1	0.00024862001999999999	2.4887999999999998e-06	3.5527136788005009e-15	0	1	1	0	1	1	1.1	0.9;
	433	1	0.00038632001999999998	3.8639999999999989e-06	0	0	1	1	0	1	1	1.1	0.9;
	434	1	0.0015860800199999998	1.5859799999999997e-05	4.4408920985006262e-16	-3.7747582837255322e-15	1	1	0	1	1	1.1	0.9;
	443	1	-0.0020200000199999996	-2.0200020000000001e-05	0	0	1	1	0	1	1	1.1	0.9;
	450	1	0.0020899199399999997	2.090358e-05	1.5765166949677223e-14	-2.2093438190040615e-14	1	1	0	1	1	1.1	0.9;
	457	1	0.00017401997999999999	1.7399999999999999e-06	0	0	1	1	0	1	1	1.1	0.9;
	458	1	0.00113038002	1.1305019999999999e-05	-7.9936057773011271e-15	8.8817841970012523e-16	1	1	0	1	1	1.1	0.9;
	460	1	0.00339231996	3.3926999999999996e-05	-9.5479180117763462e-15	-3.9968028886505635e-15	1	1	0	1	1	1.1	0.9;
	468	1	0.0026895799199999999	2.6901179999999998e-05	-3.0969580538324506e-14	4.6333762490768489e-14	1	1	0	1	1	1.1	0.9;
	474	1	0.0014733800399999999	1.4729399999999998e-05	-2.0102980170482448e-14	-3.7565830285618934e-14	1	1	0	1	1	1.1	0.9;
	475	1	0.0017393999999999999	1.7396580000000001e-05	1.5589893069097728e-14	-8.4387820801776356e-15	1	1	0	1	1	1.1	0.9;
	477	1	0.0024487999800000002	2.44878e-05	4.7395543954457715e-14	6.7089012852526007e-15	1	1	0	1	1	1.1	0.9;
	479	1	0.0022229799599999996	2.2227959999999999e-05	-7.1054273576010019e-15	5.9952043329758453e-15	1	1	0	1	1	1.1	0.9;
	487	1	0.0016819799999999998	1.6819800000000001e-05	2.5603768160796244e-16	3.5893663095636109e-15	1	1	0	1	1	1.1	0.9;
	495	1	0.0035906999999999996	3.5906820000000001e-05	-2.5757174171303632e-14	-2.0761170560490427e-14	1	1	0	1	1	1.1	0.9;
	498	1	0.00094726001999999982	9.4726199999999994e-06	0	0	1	1	0	1	1	1.1	0.9;
	509	1	0.021405580019999999	0.00021405581999999997	-7.1054273576010019e-15	-8.8817841970012523e-16	1	1	0	1	1	1.1	0.9;
	510	1	0.016761739979999999	0.00016761737999999998	1.7763568394002505e-15	-1.7763568394002505e-15	1	1	0	1	1	1.1	0.9;
	511	1	0.011918479979999999	0.00011918477999999998	0	0	1	1	0	1	1	1.1	0.9;
	513	1	0.00070571999999999996	7.0572e-06	0	-4.4408920985006262e-16	1	1	0	1	1	1.1	0.9;
	514	1	0.0012077599799999999	1.207758e-05	8.8817841970012523e-16	4.4408920985006262e-16	1	1	0	1	1	1.1	0.9;
	516	1	0.0010214200199999998	1.0214219999999999e-05	-8.8817841970012523e-16	0	1	1	0	1	1	1.1	0.9;
	517	1	0.0043131599999999999	4.3131599999999999e-05	0	0	1	1	0	1	1	1.1	0.9;
	518	1	0.00095261999999999994	9.5219999999999996e-06	2.6645352591003757e-15	-4.4408920985006262e-16	1	1	0	1	1	1.1	0.9;
	520	1	0.0016570199999999999	1.6570199999999999e-05	8.8817841970012523e-16	2.2204460492503131e-16	1	1	0	1	1	1.1	0.9;
	521	1	0.0010743599999999999	1.0744019999999999e-05	-8.8817841970012523e-16	-6.6613381477509392e-16	1	1	0	1	1	1.1	0.9;
	522	1	0.0020399800199999998	2.0399819999999999e-05	-4.4408920985006262e-16	2.2204460492503131e-16	1	1	0	1	1	1.1	0.9;
	524	1	0.0066078400200000002	6.6081419999999995e-05	1.4210854715202004e-14	-4.2188474935755949e-15	1	1	0	1	1	1.1	0.9;
];

%% generator data
%	bus	Pg	Qg	Qmax	Qmin	Vg	mBase	status	Pmax	Pmin
mpc.gen = [
	1	0	0	9999	-9999	1	1	1	9999	-9999;
];

%% branch data
%	fbus	tbus	r	x	b	rateA	rateB	rateC	ratio	angle	status	angmin	angmax
mpc.branch = [
	1	2	0.00028918299999999999	0.00047541700000000001	0	0	0	0	0	0	1	-360	360;
	1	3	0.00032846699999999993	0.00066289199999999989	0	0	0	0	0	0	1	-360	360;
	2	5	0.24736426599999972	0.13925106200000004	0	0	0	0	0	0	1	-360	360;
	2	29	0.06074447899999999	0.030823496999999995	0	0	0	0	0	0	1	-360	360;
	2	60	0.084021527999999984	0.046676104000000065	0	0	0	0	0	0	1	-360	360;
	2	63	0.050245903000000001	0.027790549999999997	0	0	0	0	0	0	1	-360	360;
	2	72	0.0066482560000000017	0.0036932760000000014	0	0	0	0	0	0	1	-360	360;
	2	238	0.059086458000000008	0.031777864000000003	0	0	0	0	0	0	1	-360	360;
	2	243	0.086636181000000007	0.044745223999999993	0	0	0	0	0	0	1	-360	360;
	2	255	0.26985402800000008	0.14991080200000001	0	0	0	0	0	0	1	-360	360;
	2	258	0.33720881899999999	0.17722094999999999	0	0	0	0	0	0	1	-360	360;
	2	260	0.147998715	0.079977312999999994	0	0	0	0	0	0	1	-360	360;
	2	262	0.12353972199999999	0.068377745999999989	0	0	0	0	0	0	1	-360	360;
	3	83	0.071801944000000006	0.037280777999999994	0	0	0	0	0	0	1	-360	360;
	3	109	0.35337743100000002	0.17770364299999997	0	0	0	0	0	0	1	-360	360;
	3	132	0.14278527799999999	0.068693431999999985	0	0	0	0	0	0	1	-360	360;
	3	167	0.042019305999999992	0.023342796999999995	0	0	0	0	0	0	1	-360	360;
	3	172	0.18320420900000003	0.12431944800000001	0	0	0	0	0	0	1	-360	360;
	3	178	0.40029923600000006	0.17365186100000002	0	0	0	0	0	0	1	-360	360;
	3	211	0.056830555999999997	0.031570824999999997	0	0	0	0	0	0	1	-360	360;
	3	226	0.040481806000000002	0.022488677000000002	0	0	0	0	0	0	1	-360	360;
	3	230	0.028289235999999999	0.012511284000000001	0	0	0	0	0	0	1	-360	360;
	3	266	0.12242656399999999	0.068011082	0	0	0	0	0	0	1	-360	360;
	3	379	0.075623680999999998	0.041320343000000002	0	0	0	0	0	0	1	-360	360;
	3	430	0.049621389000000002	0.027565947999999996	0	0	0	0	0	0	1	-360	360;
	5	6	0.027863723000000003	0.0043734360000000005	0	0	0	0	0	0	1	-360	360;
	5	9	0.20876666700000002	0.06353642100000001	0	0	0	0	0	0	1	-360	360;
	5	22	0.23991854200000007	0.041684789000000035	0	0	0	0	0	0	1	-360	360;
	5	24	0.13338371499999999	0.038592828999999988	0	0	0	0	0	0	1	-360	360;
	5	44	0.13536673599999999	0.022557072000000001	0	0	0	0	0	0	1	-360	360;
	5	47	0.50667777799999991	0.15420322099999997	0	0	0	0	0	0	1	-360	360;
	5	48	0.26368888899999993	0.080251548000000034	0	0	0	0	0	0	1	-360	360;
	5	57	0.19829034700000001	0.044018622	0	0	0	0	0	0	1	-360	360;
	6	7	0.39897798600000001	0.066484391000000018	0	0	0	0	0	0	1	-360	360;
	6	41	0.14237767400000004	0.024212407000000002	0	0	0	0	0	0	1	-360	360;
	9	11	0.16111111100000003	0.049347221000000004	0	0	0	0	0	0	1	-360	360;
	11	12	0.090711110999999997	0.028244335999999995	0	0	0	0	0	0	1	-360	360;
	29	30	0.049522083000000001	0.026264914	0	0	0	0	0	0	1	-360	360;
	30	31	0.044647395999999999	0.026960864999999997	0	0	0	0	0	0	1	-360	360;
	31	34	0.072135068999999968	0.041156826999999993	0	0	0	0	0	0	1	-360	360;
	41	42	0.14905475700000001	0.025026167000000002	0	0	0	0	0	0	1	-360	360;
	48	50	0.17411111199999993	0.052989286999999725	0	0	0	0	0	0	1	-360	360;
	50	51	0.14571111100000006	0.044345980000000063	0	0	0	0	0	0	1	-360	360;
	63	64	0.090604409999999996	0.049270644999999995	0	0	0	0	0	0	1	-360	360;
	64	70	0.11892597199999991	0.061110195000000277	0	0	0	0	0	0	1	-360	360;
	67	68	0.14267142399999999	0.030715940000000001	0	0	0	0	0	0	1	-360	360;
	68	240	0.034833819000000002	0.017577428999999999	0	0	0	0	0	0	1	-360	360;
	72	78	0.74496930500000069	0.19413439099999982	0	0	0	0	0	0	1	-360	360;
	83	84	0.14563232599999998	0.039760017999999994	0	0	0	0	0	0	1	-360	360;
	84	85	0.066500000000000004	0.020238728999999997	0	0	0	0	0	0	1	-360	360;
	84	101	0.18617933999999997	0.030111837999999995	0	0	0	0	0	0	1	-360	360;
	85	87	0.1089555560000008	0.033159728999999749	0	0	0	0	0	0	1	-360	360;
	87	93	0.18988888899999953	0.057791124000001054	0	0	0	0	0	0	1	-360	360;
	101	102	0.16846281299999996	0.027255388999999998	0	0	0	0	0	0	1	-360	360;
	102	103	0.14307777799999999	0.04354454700000001	0	0	0	0	0	0	1	-360	360;
	103	105	0.12207930600000001	0.067922978000000009	0	0	0	0	0	0	1	-360	360;
	105	107	0.065530485999999999	0.015646548999999999	0	0	0	0	0	0	1	-360	360;
	107	108	0.087890938000000002	0.019427151	0	0	0	0	0	0	1	-360	360;
	108	474	0.081334098000000021	0.073132895999999961	0	0	0	0	0	0	1	-360	360;
	109	110	0.22148888900000002	0.067408325000000019	0	0	0	0	0	0	1	-360	360;
	110	111	0.078588888999999981	0.023917883000000001	0	0	0	0	0	0	1	-360	360;
	111	112	0.10817777799999999	0.032923017999999991	0	0	0	0	0	0	1	-360	360;
	112	113	0.105922222	0.032236559000000005	0	0	0	0	0	0	1	-360	360;
	113	114	0.10043333300000001	0.031636165000000015	0	0	0	0	0	0	1	-360	360;
	113	125	0.244277778	0.074343936000000055	0	0	0	0	0	0	1	-360	360;
	114	119	0.36026045199999945	0.09907383299999889	0	0	0	0	0	0	1	-360	360;
	125	127	0.24977055599999998	0.064613071000000424	0	0	0	0	0	0	1	-360	360;
	132	133	0.077233333000000015	0.023505331000000004	0	0	0	0	0	0	1	-360	360;
	133	134	0.1178	0.035851463	0	0	0	0	0	0	1	-360	360;
	134	135	0.089677777999999986	0.027292694999999995	0	0	0	0	0	0	1	-360	360;
	135	136	0.084344443999999991	0.025669538999999998	0	0	0	0	0	0	1	-360	360;
	136	137	0.114422222	0.034823463999999998	0	0	0	0	0	0	1	-360	360;
	137	138	0.095366666999999988	0.029024061999999996	0	0	0	0	0	0	1	-360	360;
	138	139	0.068299999999999986	0.020911007999999998	0	0	0	0	0	0	1	-360	360;
	139	140	0.142166667	0.044101089000000003	0	0	0	0	0	0	1	-360	360;
	140	141	0.13792222200000001	0.041975495999999994	0	0	0	0	0	0	1	-360	360;
	141	142	0.093588889000000008	0.02848301000000001	0	0	0	0	0	0	1	-360	360;
	142	144	0.16835152800000008	0.028053549999999906	0	0	0	0	0	0	1	-360	360;
	142	146	0.106777778	0.032496940000000002	0	0	0	0	0	0	1	-360	360;
	146	160	0.15585173600000024	0.069037480000000276	0	0	0	0	0	0	1	-360	360;
	156	158	0.11188624999999953	0.074000214999999994	0	0	0	0	0	0	1	-360	360;
	158	160	0.090421528000000112	0.059803706999999796	0	0	0	0	0	0	1	-360	360;
	167	169	0.077400208000000192	0.034979016000000016	0	0	0	0	0	0	1	-360	360;
	172	173	0.064433332999999982	0.019609755999999992	0	0	0	0	0	0	1	-360	360;
	172	174	0.067288889000000005	0.020478820999999998	0	0	0	0	0	0	1	-360	360;
	178	179	0.086705971999999992	0.039369065000000002	0	0	0	0	0	0	1	-360	360;
	178	198	0.23948888899999998	0.072886475999999811	0	0	0	0	0	0	1	-360	360;
	179	182	0.08837132000000017	0.031856295000000076	0	0	0	0	0	0	1	-360	360;
	182	183	0.119777778	0.036453382999999999	0	0	0	0	0	0	1	-360	360;
	183	184	0.107988889	0.032865532000000003	0	0	0	0	0	0	1	-360	360;
	184	186	0.22057777800000009	0.067131034999999464	0	0	0	0	0	0	1	-360	360;
	186	187	0.22224388899999994	0.036331319000000466	0	0	0	0	0	0	1	-360	360;
	187	189	0.15969999999999987	0.048603384000000478	0	0	0	0	0	0	1	-360	360;
	211	213	0.071511006999999988	0.035223362000000043	0	0	0	0	0	0	1	-360	360;
	214	246	0.076349861000000005	0.037388988999999997	0	0	0	0	0	0	1	-360	360;
	226	227	0.076790278000000017	0.037982292000000008	0	0	0	0	0	0	1	-360	360;
	230	231	0.035771042000000003	0.015820210000000001	0	0	0	0	0	0	1	-360	360;
	231	232	0.037129166999999998	0.019198730999999997	0	0	0	0	0	0	1	-360	360;
	232	235	0.043619131999999998	0.025476570999999993	0	0	0	0	0	0	1	-360	360;
	238	239	0.083746249999999994	0.042291508999999998	0	0	0	0	0	0	1	-360	360;
	239	240	0.038104096999999996	0.019227637999999995	0	0	0	0	0	0	1	-360	360;
	240	241	0.10815784699999999	0.054566627999999992	0	0	0	0	0	0	1	-360	360;
	241	253	0.050419931000000015	0.023083070999999997	0	0	0	0	0	0	1	-360	360;
	243	244	0.059272257000000002	0.02961082	0	0	0	0	0	0	1	-360	360;
	244	246	0.039829410000000003	0.019043504999999999	0	0	0	0	0	0	1	-360	360;
	255	256	0.027321944000000004	0.015178038	0	0	0	0	0	0	1	-360	360;
	256	257	0.043180971999999998	0.023988131999999999	0	0	0	0	0	0	1	-360	360;
	266	267	0.13329697700000001	0.074049873999999988	0	0	0	0	0	0	1	-360	360;
	266	328	0.15777222199999996	0.067297822999999993	0	0	0	0	0	0	1	-360	360;
	266	352	0.042919027999999998	0.023842616000000001	0	0	0	0	0	0	1	-360	360;
	266	450	0.63815642400000028	0.23050727099999993	0	0	0	0	0	0	1	-360	360;
	266	457	0.19304625	0.074222743999999993	0	0	0	0	0	0	1	-360	360;
	266	513	0.099192500000000003	0.035374878999999998	0	0	0	0	0	0	1	-360	360;
	267	268	0.19493333299999996	0.059326358999999988	0	0	0	0	0	0	1	-360	360;
	267	307	0.16488888900000001	0.050182578999999991	0	0	0	0	0	0	1	-360	360;
	267	510	0.106677778	0.032536864000000006	0	0	0	0	0	0	1	-360	360;
	268	270	0.26147913200000006	0.065728773000000032	0	0	0	0	0	0	1	-360	360;
	270	272	0.111588889	0.033961162000000003	0	0	0	0	0	0	1	-360	360;
	272	275	0.18151229199999977	0.1542021299999996	0	0	0	0	0	0	1	-360	360;
	272	293	0.28930000000000011	0.088046080000000027	0	0	0	0	0	0	1	-360	360;
	275	286	0.42671708400000102	0.3442042349999932	0	0	0	0	0	0	1	-360	360;
	307	308	0.13847777799999997	0.042144574999999997	0	0	0	0	0	0	1	-360	360;
	308	310	0.089977777999999994	0.027383998000000007	0	0	0	0	0	0	1	-360	360;
	310	316	0.19418888900000014	0.059099794000000011	0	0	0	0	0	0	1	-360	360;
	316	318	0.14094444500000006	0.042895284000000054	0	0	0	0	0	0	1	-360	360;
	318	319	0.15293930599999997	0.032796155000000049	0	0	0	0	0	0	1	-360	360;
	319	323	0.28961111099999959	0.088140763000000608	0	0	0	0	0	0	1	-360	360;
	328	329	0.067911110999999996	0.020668189	0	0	0	0	0	0	1	-360	360;
	329	330	0.084366667000000006	0.025676302000000002	0	0	0	0	0	0	1	-360	360;
	330	332	0.18654444500000003	0.056773270000000008	0	0	0	0	0	0	1	-360	360;
	332	336	0.27136249999999995	0.21233992099999985	0	0	0	0	0	0	1	-360	360;
	352	353	0.043992707999999998	0.024332943999999999	0	0	0	0	0	0	1	-360	360;
	353	354	0.099855555999999998	0.030625619999999996	0	0	0	0	0	0	1	-360	360;
	354	356	0.10265763900000004	0.036985381000000012	0	0	0	0	0	0	1	-360	360;
	356	357	0.20616847199999999	0.13635733799999999	0	0	0	0	0	0	1	-360	360;
	357	361	0.117557223	0.077750927999999997	0	0	0	0	0	0	1	-360	360;
	361	362	0.098096249999999982	0.099024308999999991	0	0	0	0	0	0	1	-360	360;
	362	364	0.13196555499999998	0.087280425999999994	0	0	0	0	0	0	1	-360	360;
	362	369	0.030822222	0.0094570669999999996	0	0	0	0	0	0	1	-360	360;
	369	370	0.048411111	0.014999250999999998	0	0	0	0	0	0	1	-360	360;
	370	372	0.10791111099999998	0.032947234999999998	0	0	0	0	0	0	1	-360	360;
	379	380	0.066653193999999999	0.036343317999999999	0	0	0	0	0	0	1	-360	360;
	380	381	0.052732569000000007	0.027908578000000003	0	0	0	0	0	0	1	-360	360;
	381	383	0.08380256899999998	0.045171412000000008	0	0	0	0	0	0	1	-360	360;
	383	387	0.02929791700000001	0.044706173000000016	0	0	0	0	0	0	1	-360	360;
	387	388	0.074921874999999985	0.11432452	0	0	0	0	0	0	1	-360	360;
	387	421	0.16044444399999996	0.048940558999999995	0	0	0	0	0	0	1	-360	360;
	388	389	0.062365624999999987	0.095164731999999988	0	0	0	0	0	0	1	-360	360;
	389	392	0.11576250000000002	0.17664390100000002	0	0	0	0	0	0	1	-360	360;
	392	393	0.063167707999999989	0.096388643999999982	0	0	0	0	0	0	1	-360	360;
	393	394	0.060387083000000001	0.046429467000000002	0	0	0	0	0	0	1	-360	360;
	394	398	0.085071874999999478	0.12981257200000024	0	0	0	0	0	0	1	-360	360;
	398	410	0.074207291999999925	0.11323412599999967	0	0	0	0	0	0	1	-360	360;
	410	415	0.23042652799999991	0.093767814000000629	0	0	0	0	0	0	1	-360	360;
	421	423	0.091409271000000014	0.01747216299999995	0	0	0	0	0	0	1	-360	360;
	430	431	0.050270555999999994	0.027926577000000001	0	0	0	0	0	0	1	-360	360;
	431	432	0.073430417000000012	0.032503048000000007	0	0	0	0	0	0	1	-360	360;
	432	433	0.059782917000000005	0.026439775000000002	0	0	0	0	0	0	1	-360	360;
	433	434	0.072886805999999998	0.032235140000000009	0	0	0	0	0	0	1	-360	360;
	434	443	0.28761319399999996	0.12720068700000001	0	0	0	0	0	0	1	-360	360;
	457	458	0.22929569399999999	0.15165340399999999	0	0	0	0	0	0	1	-360	360;
	458	460	0.100675	0.050077640999999992	0	0	0	0	0	0	1	-360	360;
	460	468	0.3709961109999998	0.24537234799999977	0	0	0	0	0	0	1	-360	360;
	474	475	0.10385437500000004	0.10483690999999998	0	0	0	0	0	0	1	-360	360;
	475	477	0.1618670490000001	0.098237603000000201	0	0	0	0	0	0	1	-360	360;
	477	479	0.085144444000000041	0.025913012000000027	0	0	0	0	0	0	1	-360	360;
	477	487	0.5279756600000004	0.098356394000000694	0	0	0	0	0	0	1	-360	360;
	479	495	0.2788222219999999	0.084857254000000049	0	0	0	0	0	0	1	-360	360;
	498	517	0.132688889	0.040382774000000003	0	0	0	0	0	0	1	-360	360;
	498	518	0.129577778	0.039435932999999992	0	0	0	0	0	0	1	-360	360;
	509	511	0.046688889000000004	0.014667747000000002	0	0	0	0	0	0	1	-360	360;
	510	511	0.064555556	0.019711312000000005	0	0	0	0	0	0	1	-360	360;
	513	514	0.11713333299999999	0.035648567999999992	0	0	0	0	0	0	1	-360	360;
	514	516	0.136722222	0.041610286000000003	0	0	0	0	0	0	1	-360	360;
	516	517	0.12139999999999998	0.036947093	0	0	0	0	0	0	1	-360	360;
	518	520	0.14092222200000001	0.042888521000000006	0	0	0	0	0	0	1	-360	360;
	520	521	0.16757777800000004	0.051000921000000005	0	0	0	0	0	0	1	-360	360;
	521	522	0.14813333299999998	0.045083163999999995	0	0	0	0	0	0	1	-360	360;
	522	524	0.241933333	0.073630424000000028	0	0	0	0	0	0	1	-360	360;
];
